/*--------------------------------*- C++ -*----------------------------------*\
| =========                 |                                                 |
| \\      /  F ield         | OpenFOAM v2512                                  |
|  \\    /   O peration     | Case: French Monobob with Athlete               |
|   \\  /    A nd           | Author: Diep Thanh Phuong                       |
|    \\/     M anipulation  |                                                 |
\*---------------------------------------------------------------------------*/
FoamFile
{
  version          2.0;
  format           ascii;
  class            dictionary;
  object           transportProperties;
}
// * * * * * * * * * * * * * * * * * * * * * * * * * * * * * * * * * * * * * //

transportModel     Newtonian;
nu                 1.5e-05;


// ************************************************************************* //
